@<TRIPOS>MOLECULE
003.pdb
 66 68 0 0 0
SMALL
GASTEIGER

@<TRIPOS>ATOM
      1  N1       -50.4600  -20.2550   71.1740 N.pl3   1  0031       -0.2893
      2  H1       -50.9690  -19.4650   70.8040 H       1  0031        0.2546
      3  H2       -50.4560  -20.4900   72.1550 H       1  0031        0.2546
      4  C1       -49.6900  -20.9060   70.2590 C.cat   1  0031        0.3765
      5  N2       -50.2570  -20.8250   69.0000 N.pl3   1  0031       -0.2893
      6  H3       -49.8840  -21.3780   68.2420 H       1  0031        0.2546
      7  H4       -51.0440  -20.2120   68.8390 H       1  0031        0.2546
      8  N3       -48.6290  -21.7900   70.2920 N.pl3   1  0031       -0.1138
      9  C2       -47.7070  -22.1200   71.3230 C.3     1  0031        0.1048
     10  H5       -48.1440  -21.9390   72.3050 H       1  0031        0.0693
     11  H6       -47.3990  -23.1630   71.2480 H       1  0031        0.0693
     12  C3       -46.5220  -21.1840   71.0740 C.3     1  0031       -0.0165
     13  H7       -46.9260  -20.2180   70.7720 H       1  0031        0.0298
     14  H8       -45.9870  -21.0750   72.0170 H       1  0031        0.0298
     15  C4       -45.4860  -21.6160   69.9960 C.3     1  0031       -0.0230
     16  H9       -45.9830  -21.6770   69.0280 H       1  0031        0.0289
     17  H10      -45.0840  -22.5940   70.2600 H       1  0031        0.0289
     18  C5       -44.2930  -20.5720   69.9030 C.3     1  0031        0.0995
     19  H11      -43.4170  -20.9190   69.3540 H       1  0031        0.0594
     20  C6       -43.9430  -20.2610   71.3950 C.2     1  0031        0.2336
     21  N4       -43.2680  -21.2970   72.0370 N.am    1  0031       -0.3097
     22  H12      -42.9630  -22.0790   71.4750 H       1  0031        0.1491
     23  C7       -42.9760  -21.3290   73.4430 C.3     1  0031        0.0369
     24  H13      -42.1220  -21.9710   73.6600 H       1  0031        0.0512
     25  H14      -42.7880  -20.3290   73.8350 H       1  0031        0.0512
     26  C8       -44.2750  -21.9160   74.0000 C.ar    1  0031       -0.0301
     27  C9       -44.6710  -23.2570   73.6750 C.ar    1  0031       -0.0536
     28  H15      -44.0100  -23.8780   73.0890 H       1  0031        0.0622
     29  C10      -45.9140  -23.7810   74.1090 C.ar    1  0031       -0.0199
     30  H16      -46.2000  -24.7940   73.8670 H       1  0031        0.0654
     31  C11      -46.7720  -22.9500   74.8660 C.ar    1  0031        0.1169
     32  O1       -48.0010  -23.3600   75.3380 O.3     1  0031       -0.5068
     33  H17      -48.3810  -22.6690   75.9030 H       1  0031        0.2921
     34  C12      -46.3920  -21.6040   75.1900 C.ar    1  0031       -0.0199
     35  H18      -47.0630  -20.9770   75.7580 H       1  0031        0.0654
     36  C13      -45.1510  -21.0990   74.7710 C.ar    1  0031       -0.0536
     37  H19      -44.8610  -20.0920   75.0330 H       1  0031        0.0622
     38  O2       -44.2390  -19.1780   71.9410 O.2     1  0031       -0.2738
     39  N5       -44.8310  -19.3810   69.2410 N.am    1  0031       -0.3032
     40  H20      -45.3420  -18.7190   69.8070 H       1  0031        0.1495
     41  C14      -44.6870  -19.1000   67.8890 C.2     1  0031        0.2254
     42  O3       -44.0790  -19.8190   67.1090 O.2     1  0031       -0.2748
     43  C15      -45.4070  -17.8340   67.4640 C.3     1  0031        0.0855
     44  H21      -45.5190  -17.1450   68.3010 H       1  0031        0.0492
     45  C16      -46.7920  -18.2790   66.9880 C.ar    1  0031       -0.0312
     46  C17      -47.9390  -17.9030   67.6910 C.ar    1  0031       -0.0575
     47  H22      -47.8690  -17.2440   68.5440 H       1  0031        0.0621
     48  C18      -49.1880  -18.3970   67.2700 C.ar    1  0031       -0.0615
     49  H23      -50.0790  -18.1100   67.8090 H       1  0031        0.0618
     50  C19      -46.9160  -19.1540   65.8530 C.ar    1  0031       -0.0575
     51  H24      -46.0290  -19.4380   65.3070 H       1  0031        0.0621
     52  C20      -48.1600  -19.6460   65.4390 C.ar    1  0031       -0.0615
     53  H25      -48.2360  -20.3060   64.5880 H       1  0031        0.0618
     54  C21      -49.3010  -19.2650   66.1510 C.ar    1  0031       -0.0617
     55  H26      -50.2710  -19.6310   65.8500 H       1  0031        0.0618
     56  C22      -44.6090  -16.9290   66.5050 C.ar    1  0031       -0.0312
     57  C23      -43.2450  -16.6910   66.7460 C.ar    1  0031       -0.0575
     58  H27      -42.7510  -17.1930   67.5650 H       1  0031        0.0621
     59  C24      -42.5140  -15.8010   65.9270 C.ar    1  0031       -0.0615
     60  H28      -41.4680  -15.6250   66.1320 H       1  0031        0.0618
     61  C25      -43.1280  -15.1420   64.8500 C.ar    1  0031       -0.0617
     62  H29      -42.5630  -14.4600   64.2320 H       1  0031        0.0618
     63  C26      -44.4780  -15.3790   64.5890 C.ar    1  0031       -0.0615
     64  H30      -44.9600  -14.8860   63.7580 H       1  0031        0.0618
     65  C27      -45.2150  -16.2600   65.4070 C.ar    1  0031       -0.0575
     66  H31      -46.2600  -16.4300   65.1950 H       1  0031        0.0621
@<TRIPOS>BOND
     1    64    63    1
     2    62    61    1
     3    53    52    1
     4    63    61   ar
     5    63    65   ar
     6    61    59   ar
     7    66    65    1
     8    51    50    1
     9    65    56   ar
    10    52    50   ar
    11    52    54   ar
    12    55    54    1
    13    50    45   ar
    14    59    60    1
    15    59    57   ar
    16    54    48   ar
    17    56    57   ar
    18    56    43    1
    19    57    58    1
    20    45    43    1
    21    45    46   ar
    22    42    41    2
    23    48    46   ar
    24    48    49    1
    25    43    41    1
    26    43    44    1
    27    46    47    1
    28    41    39   am
    29     6     5    1
    30     7     5    1
    31     5     4    1
    32    16    15    1
    33    39    40    1
    34    39    18    1
    35    19    18    1
    36    18    15    1
    37    18    20    1
    38    15    17    1
    39    15    12    1
    40     4     8    2
    41     4     1    1
    42     8     9    1
    43    13    12    1
    44     2     1    1
    45    12     9    1
    46    12    14    1
    47     1     3    1
    48    11     9    1
    49     9    10    1
    50    20    38    2
    51    20    21   am
    52    22    21    1
    53    21    23    1
    54    28    27    1
    55    23    24    1
    56    23    25    1
    57    23    26    1
    58    27    26   ar
    59    27    29   ar
    60    30    29    1
    61    26    36   ar
    62    29    31   ar
    63    36    37    1
    64    36    34   ar
    65    31    34   ar
    66    31    32    1
    67    34    35    1
    68    32    33    1
